http://www.znetdevelopment.com/blogs/2012/03/30/designing-modular-views-with-grails/

talks about render mulitple models in render domain action

http://www.znetdevelopment.com/blogs/2012/03/30/designing-modular-views-with-grails/


http://dickersonshypotheticalblog.blogspot.com.au/2009/10/grails-dynamically-building-criteria.html